*KEYWORD
$
$ File created by cubit version 16.1.1
$...>....1....>....2....>....3....>....4....>....5....>....6....>....7....>....8
*TITLE
$ cubit(gzhou/Documents/Cubit_work/marco_taylorbar/marco_taylor.k): 11/10/2017: 12
*PART
PATRAN_1
$    pid     sid     mid   eosid    hgid    grav  adpopt    tmid
       1       1       1
*SECTION_SOLID
       1
*MAT_ELASTIC
       1       0       1       0     0.0     0.0       0
*NODE
$    nid               x               y               z      tc      rc
       1      0.00103775     0.000672924      -0.0107708       0       0
       2      0.00174517      0.00123078      -0.0107708       0       0
       3      0.00231766     0.000591506      -0.0107708       0       0
       4      0.00166981    -0.000337753      -0.0107708       0       0
       5      0.00103786     0.000672369        -0.01175       0       0
       6      0.00174535      0.00123012        -0.01175       0       0
       7      0.00231779     0.000590982        -0.01175       0       0
       8      0.00167002    -0.000338508        -0.01175       0       0
       9      0.00303772      0.00014882      -0.0107708       0       0
      10      0.00277911     -0.00067643      -0.0107708       0       0
      11      0.00303774     0.000148457        -0.01175       0       0
      12      0.00277876    -0.000676924        -0.01175       0       0
      13      0.00128503      0.00184117      -0.0107708       0       0
      14     0.000651391       0.0014576      -0.0107708       0       0
      15      0.00128514      0.00184098        -0.01175       0       0
      16     0.000651636       0.0014566        -0.01175       0       0
      17     0.000127569     0.000299333      -0.0107708       0       0
      18    -0.000128222      0.00116722      -0.0107708       0       0
      19     0.000127832     0.000298185        -0.01175       0       0
      20    -0.000128036      0.00116547        -0.01175       0       0
$ ... 1930 like lines cut
$
$...>....1....>....2....>....3....>....4....>....5....>....6....>....7....>....8
$    eid     pid      n1      n2      n3      n4      n5      n6      n7      n8
*ELEMENT_SOLID
       1       1       1       2       3       4       5       6       7       8
       2       1       3       9      10       4       7      11      12       8
       3       1      13       2       1      14      15       6       5      16
       4       1       1      17      18      14       5      19      20      16
       5       1      21      22      23      13      24      25      26      15
       6       1      27      28      22      21      29      30      25      24
       7       1      14      27      21      13      16      29      24      15
       8       1      31      32      17      33      34      35      19      36
       9       1      37      38      32      31      39      40      35      34
      10       1      41      42      38      37      43      44      40      39
      11       1      45      41      37      46      47      43      39      48
      12       1      49      18      17      32      50      20      19      35
      13       1      31      51      46      37      34      52      48      39
      14       1       1       4      33      17       5       8      36      19
      15       1      53      27      14      18      54      29      16      20
      16       1      55      53      18      49      56      54      20      50
      17       1      57      55      49      58      59      56      50      60
      18       1      38      58      49      32      40      60      50      35
      19       1      61      62      51      31      63      64      52      34
      20       1      65      61      31      33      66      63      34      36
$ ... 1516 like lines cut
*SET_NODE_LIST
         1
        90        84        83        86        88        59        56        54
        63        64        66        68        60        71        76        78
        80        74        72        52        26        34        20        39
        36        19        44        43        29        40        35        30
         8        47        25        48        50         5        16         6
         7        11        15        24        12       104       100        94
        98        93       103        96       233       226       228       217
       216       221       232       229       234       222       220       219
       227       218       230       224       231       223       225       289
       294       295       290       292       293       296       298       299
       291       297       288       287      1857      1871      1867      1865
      1863      1872      1850      1858      1864      1866      1847      1862
      1852      1851      1859      1855      1848      1853      1854      1861
      1868      1849      1856      1860      1869      1870      1083      1080
      1089      1091      1082      1090      1086      1087      1084      1085
      1088      1092      1081      1009      1012      1014       998      1000
       989       991       996      1003      1010      1005      1007       999
       995      1013       992      1008      1002      1004      1006       990
       993      1001      1011       994       997      1075      1073      1067
$ ... 225 like lines cut
*SET_NODE_LIST
         2
       107       110       112       114       116       118       120       122
       124       126       128       130       132       134       136       138
       140       142       144       146       148       150       152       154
       156       108        90        84        83        86        88        59
        56        54        63        64        66        68        60        71
        76        78        80        74        72        52        26        34
        20        39        36        19        44        43        29        40
        35        30         8        47        25        48        50         5
        16         6         7        11        15        24        12       104
       100        94        98        93       103        96
*END
